/*--------------------------------*- C++ -*----------------------------------*\
| =========                 |                                                 |
| \\      /  F ield         | OpenFOAM: The Open Source CFD Toolbox           |
|  \\    /   O peration     | Version:  5.x                                   |
|   \\  /    A nd           | Web:      www.OpenFOAM.org                      |
|    \\/     M anipulation  |                                                 |
\*---------------------------------------------------------------------------*/
FoamFile
{
    version     2.0;
    format      binary;
    class       volScalarField;
    location    "0";
    object      k;
}
// * * * * * * * * * * * * * * * * * * * * * * * * * * * * * * * * * * * * * //

dimensions      [0 2 -2 0 0 0 0];

kInlet		4.7e-5;

internalField   uniform $kInlet;

boundaryField
{
    sides
    {
        type            empty;
    }
    inlet
    {
        type            turbulentIntensityKineticEnergyInlet;
        intensity	0.10;
	value		uniform 4.7e-5;
    }
    buildings
    {
        type            kqRWallFunction;
        value           uniform $kInlet;
    }
	roads
    {
        type            kqRWallFunction;
        value           uniform $kInlet;
    }
    outlet
    {
        type            zeroGradient;
    }
    atmosphere
    {
        type            symmetry;
    }
    
    #includeEtc "caseDicts/setConstraintTypes"
}


// ************************************************************************* //
