/*--------------------------------*- C++ -*----------------------------------*\
| =========                 |                                                 |
| \\      /  F ield         | OpenFOAM: The Open Source CFD Toolbox           |
|  \\    /   O peration     | Version:  5.x                                   |
|   \\  /    A nd           | Web:      www.OpenFOAM.org                      |
|    \\/     M anipulation  |                                                 |
\*---------------------------------------------------------------------------*/
FoamFile
{
    version     2.0;
    format      binary;
    class       volScalarField;
    location    "0";
    object      nut;
}
// * * * * * * * * * * * * * * * * * * * * * * * * * * * * * * * * * * * * * //

dimensions      [0 2 -1 0 0 0 0];

internalField   uniform 0;

boundaryField
{
    sides
    {
        type            empty;
    }
    inlet
    {
        type            calculated;
        value           uniform 0;
    }
    buildings
    {
        type            nutkWallFunction;
        value           uniform 0;
    }
	roads
    {
        type            nutkWallFunction;
        value           uniform 0;
    }
    outlet
    {
        type            zeroGradient;
    }
    atmosphere
    {
        type            symmetry;
    }
    
    #includeEtc "caseDicts/setConstraintTypes"
}


// ************************************************************************* //
