/*--------------------------------*- C++ -*----------------------------------*\
| =========                 |                                                 |
| \\      /  F ield         | OpenFOAM: The Open Source CFD Toolbox           |
|  \\    /   O peration     | Version:  5.x                                   |
|   \\  /    A nd           | Web:      www.OpenFOAM.org                      |
|    \\/     M anipulation  |                                                 |
\*---------------------------------------------------------------------------*/
FoamFile
{
    version     2.0;
    format      binary;
    class       volVectorField;
    location    "0";
    object      U;
}
// * * * * * * * * * * * * * * * * * * * * * * * * * * * * * * * * * * * * * //

dimensions      [0 1 -1 0 0 0 0];

internalField   uniform (0.056 0 0);

boundaryField
{
    sides
    {
        type            empty;
    }
    inlet
    {
        type            fixedValue;
        value           uniform (0.056 0 0);
    }
    buildings
    {
        type            noSlip;
    }
	roads
    {
        type            noSlip;
    }
    outlet
    {
        type            pressureInletOutletVelocity;
	value		uniform (0 0 0);
    }
    atmosphere
    {
        type            symmetry;
    }
    
    #includeEtc "caseDicts/setConstraintTypes"
}


// ************************************************************************* //
